IPZ
     RDKit          3D

 11 11  0  0  0  0  0  0  0  0999 V2000
   42.4487   12.2349   52.3779 C   0  0  0  0  0  0  0  0  0  0  0  0
   41.3096   12.3824   53.0674 N   0  0  0  0  0  0  0  0  0  0  0  0
   41.4205   12.6347   54.3727 C   0  0  0  0  0  0  0  0  0  0  0  0
   42.6617   12.7419   55.0020 C   0  0  0  0  0  0  0  0  0  0  0  0
   43.8083   12.5997   54.3406 N   0  0  0  0  0  0  0  0  0  0  0  0
   43.6945   12.3471   53.0319 C   0  0  0  0  0  0  0  0  0  0  0  0
   41.6291   10.6110   50.6581 C   0  0  0  0  0  0  0  0  0  0  0  0
   42.3631   11.9442   50.8761 C   0  0  0  0  0  0  0  0  0  0  0  0
   41.6184   13.0934   50.1771 C   0  0  0  0  0  0  0  0  0  0  0  0
   44.8650   12.1959   52.3213 O   0  0  0  0  0  0  0  0  0  0  0  0
   45.6479   10.9737   52.3415 C   0  0  0  0  0  0  0  0  0  0  0  0
  7  8  1  0
  8  9  1  0
  8  1  1  0
  1  2  2  0
  1  6  1  0
  2  3  1  0
  3  4  2  0
  4  5  1  0
  5  6  2  0
  6 10  1  0
 10 11  1  0
M  END
>  <minimizedAffinity>  (1) 
-3.86769

$$$$
