IPZ
     RDKit          3D

 11 11  0  0  0  0  0  0  0  0999 V2000
   42.8188   11.2267   51.6431 C   0  0  0  0  0  0  0  0  0  0  0  0
   43.8825   12.0146   51.8495 N   0  0  0  0  0  0  0  0  0  0  0  0
   45.0431   11.4095   52.1074 C   0  0  0  0  0  0  0  0  0  0  0  0
   45.1557   10.0193   52.1626 C   0  0  0  0  0  0  0  0  0  0  0  0
   44.1151    9.2137   51.9616 N   0  0  0  0  0  0  0  0  0  0  0  0
   42.9525    9.8228   51.7028 C   0  0  0  0  0  0  0  0  0  0  0  0
   40.8601   12.4143   52.6527 C   0  0  0  0  0  0  0  0  0  0  0  0
   41.4677   11.8841   51.3438 C   0  0  0  0  0  0  0  0  0  0  0  0
   41.6708   13.0288   50.3377 C   0  0  0  0  0  0  0  0  0  0  0  0
   41.8580    9.0138   51.4897 O   0  0  0  0  0  0  0  0  0  0  0  0
   41.6917    7.7250   52.1364 C   0  0  0  0  0  0  0  0  0  0  0  0
  7  8  1  0
  8  9  1  0
  8  1  1  0
  1  2  2  0
  1  6  1  0
  2  3  1  0
  3  4  2  0
  4  5  1  0
  5  6  2  0
  6 10  1  0
 10 11  1  0
M  END
>  <minimizedAffinity>  (1) 
-3.64619

$$$$
