IPZ
     RDKit          3D

 11 11  0  0  0  0  0  0  0  0999 V2000
   59.0573   13.3072   36.3125 C   0  0  0  0  0  0  0  0  0  0  0  0
   59.2390   12.7129   37.4993 N   0  0  0  0  0  0  0  0  0  0  0  0
   58.9086   13.4146   38.5847 C   0  0  0  0  0  0  0  0  0  0  0  0
   58.3961   14.7101   38.4996 C   0  0  0  0  0  0  0  0  0  0  0  0
   58.2058   15.3237   37.3335 N   0  0  0  0  0  0  0  0  0  0  0  0
   58.5376   14.6179   36.2466 C   0  0  0  0  0  0  0  0  0  0  0  0
   60.9149   12.7487   34.7303 C   0  0  0  0  0  0  0  0  0  0  0  0
   59.4249   12.5336   35.0422 C   0  0  0  0  0  0  0  0  0  0  0  0
   59.1250   11.0402   35.2514 C   0  0  0  0  0  0  0  0  0  0  0  0
   58.3505   15.2275   35.0254 O   0  0  0  0  0  0  0  0  0  0  0  0
   57.0446   15.3752   34.4092 C   0  0  0  0  0  0  0  0  0  0  0  0
  7  8  1  0
  8  9  1  0
  8  1  1  0
  1  2  2  0
  1  6  1  0
  2  3  1  0
  3  4  2  0
  4  5  1  0
  5  6  2  0
  6 10  1  0
 10 11  1  0
M  END
>  <minimizedAffinity>  (1) 
-4.05055

$$$$
