IPZ
     RDKit          3D

 11 11  0  0  0  0  0  0  0  0999 V2000
   41.9390   12.2111   52.3990 C   0  0  0  0  0  0  0  0  0  0  0  0
   43.2627   12.2478   52.6013 N   0  0  0  0  0  0  0  0  0  0  0  0
   43.6786   12.4975   53.8441 C   0  0  0  0  0  0  0  0  0  0  0  0
   42.7839   12.7127   54.8936 C   0  0  0  0  0  0  0  0  0  0  0  0
   41.4644   12.6820   54.7200 N   0  0  0  0  0  0  0  0  0  0  0  0
   41.0499   12.4311   53.4731 C   0  0  0  0  0  0  0  0  0  0  0  0
   41.7310   13.1308   50.0801 C   0  0  0  0  0  0  0  0  0  0  0  0
   41.4219   11.9270   50.9851 C   0  0  0  0  0  0  0  0  0  0  0  0
   42.0945   10.6550   50.4435 C   0  0  0  0  0  0  0  0  0  0  0  0
   39.6888   12.3924   53.2636 O   0  0  0  0  0  0  0  0  0  0  0  0
   38.7309   12.1949   54.3362 C   0  0  0  0  0  0  0  0  0  0  0  0
  7  8  1  0
  8  9  1  0
  8  1  1  0
  1  2  2  0
  1  6  1  0
  2  3  1  0
  3  4  2  0
  4  5  1  0
  5  6  2  0
  6 10  1  0
 10 11  1  0
M  END
>  <minimizedAffinity>  (1) 
-4.10468

$$$$
