IPZ
     RDKit          3D

 11 11  0  0  0  0  0  0  0  0999 V2000
   53.9641   30.0993   54.0098 C   0  0  0  0  0  0  0  0  0  0  0  0
   55.2934   30.1666   54.1618 N   0  0  0  0  0  0  0  0  0  0  0  0
   55.8815   31.3210   53.8436 C   0  0  0  0  0  0  0  0  0  0  0  0
   55.1548   32.4155   53.3724 C   0  0  0  0  0  0  0  0  0  0  0  0
   53.8338   32.3754   53.2121 N   0  0  0  0  0  0  0  0  0  0  0  0
   53.2463   31.2170   53.5321 C   0  0  0  0  0  0  0  0  0  0  0  0
   53.1288   27.9209   53.1027 C   0  0  0  0  0  0  0  0  0  0  0  0
   53.2518   28.7902   54.3647 C   0  0  0  0  0  0  0  0  0  0  0  0
   54.0509   28.0552   55.4534 C   0  0  0  0  0  0  0  0  0  0  0  0
   51.8793   31.1465   53.3769 O   0  0  0  0  0  0  0  0  0  0  0  0
   50.9822   32.2087   53.7941 C   0  0  0  0  0  0  0  0  0  0  0  0
  7  8  1  0
  8  9  1  0
  8  1  1  0
  1  2  2  0
  1  6  1  0
  2  3  1  0
  3  4  2  0
  4  5  1  0
  5  6  2  0
  6 10  1  0
 10 11  1  0
M  END
>  <minimizedAffinity>  (1) 
-3.75195

$$$$
