IPZ
     RDKit          3D

 11 11  0  0  0  0  0  0  0  0999 V2000
   50.6629   23.4681   40.5877 C   0  0  0  0  0  0  0  0  0  0  0  0
   51.7861   23.6868   39.8912 N   0  0  0  0  0  0  0  0  0  0  0  0
   51.7380   24.6248   38.9438 C   0  0  0  0  0  0  0  0  0  0  0  0
   50.5755   25.3513   38.6814 C   0  0  0  0  0  0  0  0  0  0  0  0
   49.4463   25.1539   39.3583 N   0  0  0  0  0  0  0  0  0  0  0  0
   49.4971   24.2131   40.3079 C   0  0  0  0  0  0  0  0  0  0  0  0
   51.8439   21.4287   41.4320 C   0  0  0  0  0  0  0  0  0  0  0  0
   50.6781   22.3986   41.6846 C   0  0  0  0  0  0  0  0  0  0  0  0
   50.8259   23.0783   43.0558 C   0  0  0  0  0  0  0  0  0  0  0  0
   48.3430   23.9875   41.0255 O   0  0  0  0  0  0  0  0  0  0  0  0
   47.2880   24.9762   41.1540 C   0  0  0  0  0  0  0  0  0  0  0  0
  7  8  1  0
  8  9  1  0
  8  1  1  0
  1  2  2  0
  1  6  1  0
  2  3  1  0
  3  4  2  0
  4  5  1  0
  5  6  2  0
  6 10  1  0
 10 11  1  0
M  END
>  <minimizedAffinity>  (1) 
-5.22734

$$$$
