IPZ
     RDKit          3D

 11 11  0  0  0  0  0  0  0  0999 V2000
   32.2193   17.3613   45.5123 C   0  0  0  0  0  0  0  0  0  0  0  0
   32.9182   18.2402   46.2429 N   0  0  0  0  0  0  0  0  0  0  0  0
   33.8713   18.9288   45.6128 C   0  0  0  0  0  0  0  0  0  0  0  0
   34.1372   18.7497   44.2543 C   0  0  0  0  0  0  0  0  0  0  0  0
   33.4581   17.8834   43.5056 N   0  0  0  0  0  0  0  0  0  0  0  0
   32.5027   17.1943   44.1396 C   0  0  0  0  0  0  0  0  0  0  0  0
   31.7436   15.6483   47.2746 C   0  0  0  0  0  0  0  0  0  0  0  0
   31.1159   16.5509   46.2000 C   0  0  0  0  0  0  0  0  0  0  0  0
   30.0951   17.5132   46.8292 C   0  0  0  0  0  0  0  0  0  0  0  0
   31.7827   16.2906   43.3894 O   0  0  0  0  0  0  0  0  0  0  0  0
   30.8167   16.6928   42.3835 C   0  0  0  0  0  0  0  0  0  0  0  0
  7  8  1  0
  8  9  1  0
  8  1  1  0
  1  2  2  0
  1  6  1  0
  2  3  1  0
  3  4  2  0
  4  5  1  0
  5  6  2  0
  6 10  1  0
 10 11  1  0
M  END
>  <minimizedAffinity>  (1) 
-3.88874

$$$$
