IPZ
     RDKit          3D

 11 11  0  0  0  0  0  0  0  0999 V2000
   41.6706   11.2500   52.6776 C   0  0  0  0  0  0  0  0  0  0  0  0
   42.6201   10.3052   52.6558 N   0  0  0  0  0  0  0  0  0  0  0  0
   42.2665    9.0822   53.0543 C   0  0  0  0  0  0  0  0  0  0  0  0
   40.9690    8.7889   53.4772 C   0  0  0  0  0  0  0  0  0  0  0  0
   40.0071    9.7087   53.5087 N   0  0  0  0  0  0  0  0  0  0  0  0
   40.3640   10.9341   53.1083 C   0  0  0  0  0  0  0  0  0  0  0  0
   43.5080   12.9472   52.5786 C   0  0  0  0  0  0  0  0  0  0  0  0
   42.0377   12.6676   52.2272 C   0  0  0  0  0  0  0  0  0  0  0  0
   41.8089   12.7952   50.7122 C   0  0  0  0  0  0  0  0  0  0  0  0
   39.3885   11.9066   53.1296 O   0  0  0  0  0  0  0  0  0  0  0  0
   38.6833   12.2903   54.3389 C   0  0  0  0  0  0  0  0  0  0  0  0
  7  8  1  0
  8  9  1  0
  8  1  1  0
  1  2  2  0
  1  6  1  0
  2  3  1  0
  3  4  2  0
  4  5  1  0
  5  6  2  0
  6 10  1  0
 10 11  1  0
M  END
>  <minimizedAffinity>  (1) 
-3.64681

$$$$
