IPZ
     RDKit          3D

 11 11  0  0  0  0  0  0  0  0999 V2000
   32.3494   17.4462   44.7507 C   0  0  0  0  0  0  0  0  0  0  0  0
   32.8613   16.5057   43.9458 N   0  0  0  0  0  0  0  0  0  0  0  0
   32.3286   15.2852   44.0256 C   0  0  0  0  0  0  0  0  0  0  0  0
   31.2851   14.9902   44.9044 C   0  0  0  0  0  0  0  0  0  0  0  0
   30.7583   15.9057   45.7147 N   0  0  0  0  0  0  0  0  0  0  0  0
   31.2940   17.1288   45.6326 C   0  0  0  0  0  0  0  0  0  0  0  0
   34.0125   19.0124   45.7741 C   0  0  0  0  0  0  0  0  0  0  0  0
   32.9345   18.8608   44.6885 C   0  0  0  0  0  0  0  0  0  0  0  0
   33.5327   19.1030   43.2931 C   0  0  0  0  0  0  0  0  0  0  0  0
   30.7681   18.0973   46.4593 O   0  0  0  0  0  0  0  0  0  0  0  0
   29.4279   18.0203   47.0115 C   0  0  0  0  0  0  0  0  0  0  0  0
  7  8  1  0
  8  9  1  0
  8  1  1  0
  1  2  2  0
  1  6  1  0
  2  3  1  0
  3  4  2  0
  4  5  1  0
  5  6  2  0
  6 10  1  0
 10 11  1  0
M  END
>  <minimizedAffinity>  (1) 
-3.71800

$$$$
