IPZ
     RDKit          3D

 11 11  0  0  0  0  0  0  0  0999 V2000
   58.2240   13.4696   33.7007 C   0  0  0  0  0  0  0  0  0  0  0  0
   57.0817   13.6744   33.0315 N   0  0  0  0  0  0  0  0  0  0  0  0
   56.3494   14.7294   33.3924 C   0  0  0  0  0  0  0  0  0  0  0  0
   56.7456   15.5876   34.4194 C   0  0  0  0  0  0  0  0  0  0  0  0
   57.8753   15.4070   35.1002 N   0  0  0  0  0  0  0  0  0  0  0  0
   58.6079   14.3486   34.7363 C   0  0  0  0  0  0  0  0  0  0  0  0
   58.3081   10.9711   33.5714 C   0  0  0  0  0  0  0  0  0  0  0  0
   59.0930   12.2680   33.3155 C   0  0  0  0  0  0  0  0  0  0  0  0
   59.4872   12.3796   31.8336 C   0  0  0  0  0  0  0  0  0  0  0  0
   59.7833   14.1371   35.4231 O   0  0  0  0  0  0  0  0  0  0  0  0
   60.0055   14.6199   36.7739 C   0  0  0  0  0  0  0  0  0  0  0  0
  7  8  1  0
  8  9  1  0
  8  1  1  0
  1  2  2  0
  1  6  1  0
  2  3  1  0
  3  4  2  0
  4  5  1  0
  5  6  2  0
  6 10  1  0
 10 11  1  0
M  END
>  <minimizedAffinity>  (1) 
-3.99181

$$$$
