IPZ
     RDKit          3D

 11 11  0  0  0  0  0  0  0  0999 V2000
   41.2371   12.1921   52.4119 C   0  0  0  0  0  0  0  0  0  0  0  0
   39.9335   11.8931   52.3343 N   0  0  0  0  0  0  0  0  0  0  0  0
   39.2227   11.9875   53.4593 C   0  0  0  0  0  0  0  0  0  0  0  0
   39.8006   12.3787   54.6681 C   0  0  0  0  0  0  0  0  0  0  0  0
   41.0929   12.6811   54.7728 N   0  0  0  0  0  0  0  0  0  0  0  0
   41.8034   12.5860   53.6434 C   0  0  0  0  0  0  0  0  0  0  0  0
   41.8872   10.7127   50.5000 C   0  0  0  0  0  0  0  0  0  0  0  0
   42.0873   12.0957   51.1411 C   0  0  0  0  0  0  0  0  0  0  0  0
   41.6731   13.2101   50.1662 C   0  0  0  0  0  0  0  0  0  0  0  0
   43.1439   12.8938   53.7215 O   0  0  0  0  0  0  0  0  0  0  0  0
   44.1220   12.0105   54.3299 C   0  0  0  0  0  0  0  0  0  0  0  0
  7  8  1  0
  8  9  1  0
  8  1  1  0
  1  2  2  0
  1  6  1  0
  2  3  1  0
  3  4  2  0
  4  5  1  0
  5  6  2  0
  6 10  1  0
 10 11  1  0
M  END
>  <minimizedAffinity>  (1) 
-4.21096

$$$$
