IPZ
     RDKit          3D

 11 11  0  0  0  0  0  0  0  0999 V2000
   49.6577   23.5283   40.5566 C   0  0  0  0  0  0  0  0  0  0  0  0
   50.6024   22.6062   40.3289 N   0  0  0  0  0  0  0  0  0  0  0  0
   51.2750   22.1541   41.3886 C   0  0  0  0  0  0  0  0  0  0  0  0
   51.0150   22.6142   42.6805 C   0  0  0  0  0  0  0  0  0  0  0  0
   50.0824   23.5297   42.9343 N   0  0  0  0  0  0  0  0  0  0  0  0
   49.4090   23.9812   41.8702 C   0  0  0  0  0  0  0  0  0  0  0  0
   47.3672   23.7917   39.5818 C   0  0  0  0  0  0  0  0  0  0  0  0
   48.8631   24.0723   39.3650 C   0  0  0  0  0  0  0  0  0  0  0  0
   49.1174   25.5827   39.2309 C   0  0  0  0  0  0  0  0  0  0  0  0
   48.4368   24.9290   42.1029 O   0  0  0  0  0  0  0  0  0  0  0  0
   48.6368   26.0643   42.9850 C   0  0  0  0  0  0  0  0  0  0  0  0
  7  8  1  0
  8  9  1  0
  8  1  1  0
  1  2  2  0
  1  6  1  0
  2  3  1  0
  3  4  2  0
  4  5  1  0
  5  6  2  0
  6 10  1  0
 10 11  1  0
M  END
>  <minimizedAffinity>  (1) 
-4.41601

$$$$
