IPZ
     RDKit          3D

 11 11  0  0  0  0  0  0  0  0999 V2000
   49.2431   23.7630   40.9273 C   0  0  0  0  0  0  0  0  0  0  0  0
   48.6661   22.7240   40.3089 N   0  0  0  0  0  0  0  0  0  0  0  0
   47.4436   22.9184   39.8114 C   0  0  0  0  0  0  0  0  0  0  0  0
   46.7859   24.1443   39.9245 C   0  0  0  0  0  0  0  0  0  0  0  0
   47.3362   25.1923   40.5338 N   0  0  0  0  0  0  0  0  0  0  0  0
   48.5621   24.9950   41.0315 C   0  0  0  0  0  0  0  0  0  0  0  0
   50.7016   22.2584   42.2966 C   0  0  0  0  0  0  0  0  0  0  0  0
   50.6472   23.5794   41.5120 C   0  0  0  0  0  0  0  0  0  0  0  0
   51.6770   23.5745   40.3704 C   0  0  0  0  0  0  0  0  0  0  0  0
   49.1570   26.0627   41.6671 O   0  0  0  0  0  0  0  0  0  0  0  0
   48.4149   27.0127   42.4757 C   0  0  0  0  0  0  0  0  0  0  0  0
  7  8  1  0
  8  9  1  0
  8  1  1  0
  1  2  2  0
  1  6  1  0
  2  3  1  0
  3  4  2  0
  4  5  1  0
  5  6  2  0
  6 10  1  0
 10 11  1  0
M  END
>  <minimizedAffinity>  (1) 
-4.41912

$$$$
