IPZ
     RDKit          3D

 11 11  0  0  0  0  0  0  0  0999 V2000
   50.8139   23.8887   39.4837 C   0  0  0  0  0  0  0  0  0  0  0  0
   50.2299   25.0177   39.0610 N   0  0  0  0  0  0  0  0  0  0  0  0
   49.0486   25.3263   39.5986 C   0  0  0  0  0  0  0  0  0  0  0  0
   48.4394   24.5168   40.5587 C   0  0  0  0  0  0  0  0  0  0  0  0
   48.9978   23.3901   40.9959 N   0  0  0  0  0  0  0  0  0  0  0  0
   50.1823   23.0830   40.4555 C   0  0  0  0  0  0  0  0  0  0  0  0
   52.2585   24.0125   37.4431 C   0  0  0  0  0  0  0  0  0  0  0  0
   52.1716   23.4998   38.8899 C   0  0  0  0  0  0  0  0  0  0  0  0
   53.2944   24.1056   39.7479 C   0  0  0  0  0  0  0  0  0  0  0  0
   50.7844   21.9225   40.8898 O   0  0  0  0  0  0  0  0  0  0  0  0
   51.3802   21.7879   42.2066 C   0  0  0  0  0  0  0  0  0  0  0  0
  7  8  1  0
  8  9  1  0
  8  1  1  0
  1  2  2  0
  1  6  1  0
  2  3  1  0
  3  4  2  0
  4  5  1  0
  5  6  2  0
  6 10  1  0
 10 11  1  0
M  END
>  <minimizedAffinity>  (1) 
-4.79658

$$$$
