IPZ
     RDKit          3D

 11 11  0  0  0  0  0  0  0  0999 V2000
   42.0471   11.6975   53.2912 C   0  0  0  0  0  0  0  0  0  0  0  0
   41.4597   12.5375   54.1536 N   0  0  0  0  0  0  0  0  0  0  0  0
   40.1260   12.5679   54.1559 C   0  0  0  0  0  0  0  0  0  0  0  0
   39.3669   11.7655   53.3026 C   0  0  0  0  0  0  0  0  0  0  0  0
   39.9252   10.9227   52.4364 N   0  0  0  0  0  0  0  0  0  0  0  0
   41.2626   10.8938   52.4362 C   0  0  0  0  0  0  0  0  0  0  0  0
   44.1060   12.6477   52.2307 C   0  0  0  0  0  0  0  0  0  0  0  0
   43.5775   11.6337   53.2584 C   0  0  0  0  0  0  0  0  0  0  0  0
   44.1297   11.9440   54.6593 C   0  0  0  0  0  0  0  0  0  0  0  0
   41.8681   10.0299   51.5503 O   0  0  0  0  0  0  0  0  0  0  0  0
   42.0183   10.3262   50.1372 C   0  0  0  0  0  0  0  0  0  0  0  0
  7  8  1  0
  8  9  1  0
  8  1  1  0
  1  2  2  0
  1  6  1  0
  2  3  1  0
  3  4  2  0
  4  5  1  0
  5  6  2  0
  6 10  1  0
 10 11  1  0
M  END
>  <minimizedAffinity>  (1) 
-3.58847

$$$$
