IPZ
     RDKit          3D

 11 11  0  0  0  0  0  0  0  0999 V2000
   49.4079   24.4375   40.1650 C   0  0  0  0  0  0  0  0  0  0  0  0
   49.8267   25.2279   39.1678 N   0  0  0  0  0  0  0  0  0  0  0  0
   51.1272   25.1926   38.8727 C   0  0  0  0  0  0  0  0  0  0  0  0
   52.0203   24.3733   39.5651 C   0  0  0  0  0  0  0  0  0  0  0  0
   51.6306   23.5787   40.5596 N   0  0  0  0  0  0  0  0  0  0  0  0
   50.3261   23.6156   40.8534 C   0  0  0  0  0  0  0  0  0  0  0  0
   47.4014   25.8963   40.5000 C   0  0  0  0  0  0  0  0  0  0  0  0
   47.9210   24.4497   40.5340 C   0  0  0  0  0  0  0  0  0  0  0  0
   47.1431   23.5710   39.5407 C   0  0  0  0  0  0  0  0  0  0  0  0
   49.8938   22.8027   41.8782 O   0  0  0  0  0  0  0  0  0  0  0  0
   50.7774   21.9045   42.5989 C   0  0  0  0  0  0  0  0  0  0  0  0
  7  8  1  0
  8  9  1  0
  8  1  1  0
  1  2  2  0
  1  6  1  0
  2  3  1  0
  3  4  2  0
  4  5  1  0
  5  6  2  0
  6 10  1  0
 10 11  1  0
M  END
>  <minimizedAffinity>  (1) 
-5.67985

$$$$
