IPZ
     RDKit          3D

 11 11  0  0  0  0  0  0  0  0999 V2000
   43.0116   11.8605   52.0915 C   0  0  0  0  0  0  0  0  0  0  0  0
   43.2654   10.8874   51.2066 N   0  0  0  0  0  0  0  0  0  0  0  0
   44.3182   10.1056   51.4518 C   0  0  0  0  0  0  0  0  0  0  0  0
   45.1258   10.2845   52.5761 C   0  0  0  0  0  0  0  0  0  0  0  0
   44.8960   11.2433   53.4706 N   0  0  0  0  0  0  0  0  0  0  0  0
   43.8396   12.0257   53.2226 C   0  0  0  0  0  0  0  0  0  0  0  0
   41.6744   13.0428   50.3364 C   0  0  0  0  0  0  0  0  0  0  0  0
   41.8109   12.7796   51.8449 C   0  0  0  0  0  0  0  0  0  0  0  0
   40.5392   12.1141   52.3962 C   0  0  0  0  0  0  0  0  0  0  0  0
   43.5770   13.0265   54.1322 O   0  0  0  0  0  0  0  0  0  0  0  0
   42.9460   12.7801   55.4160 C   0  0  0  0  0  0  0  0  0  0  0  0
  7  8  1  0
  8  9  1  0
  8  1  1  0
  1  2  2  0
  1  6  1  0
  2  3  1  0
  3  4  2  0
  4  5  1  0
  5  6  2  0
  6 10  1  0
 10 11  1  0
M  END
>  <minimizedAffinity>  (1) 
-3.89194

$$$$
