IPZ
     RDKit          3D

 11 11  0  0  0  0  0  0  0  0999 V2000
   51.0957   23.1593   40.1042 C   0  0  0  0  0  0  0  0  0  0  0  0
   52.1001   22.3716   40.5109 N   0  0  0  0  0  0  0  0  0  0  0  0
   51.8967   21.6536   41.6167 C   0  0  0  0  0  0  0  0  0  0  0  0
   50.6961   21.7127   42.3260 C   0  0  0  0  0  0  0  0  0  0  0  0
   49.6825   22.4868   41.9439 N   0  0  0  0  0  0  0  0  0  0  0  0
   49.8887   23.2055   40.8347 C   0  0  0  0  0  0  0  0  0  0  0  0
   51.3280   25.4889   39.2180 C   0  0  0  0  0  0  0  0  0  0  0  0
   51.2907   23.9996   38.8381 C   0  0  0  0  0  0  0  0  0  0  0  0
   52.5999   23.5833   38.1479 C   0  0  0  0  0  0  0  0  0  0  0  0
   48.8564   24.0154   40.4148 O   0  0  0  0  0  0  0  0  0  0  0  0
   47.6013   23.4936   39.9056 C   0  0  0  0  0  0  0  0  0  0  0  0
  7  8  1  0
  8  9  1  0
  8  1  1  0
  1  2  2  0
  1  6  1  0
  2  3  1  0
  3  4  2  0
  4  5  1  0
  5  6  2  0
  6 10  1  0
 10 11  1  0
M  END
>  <minimizedAffinity>  (1) 
-4.89624

$$$$
