IPZ
     RDKit          3D

 11 11  0  0  0  0  0  0  0  0999 V2000
   58.5434   14.3822   36.3561 C   0  0  0  0  0  0  0  0  0  0  0  0
   57.4309   14.9733   35.9006 N   0  0  0  0  0  0  0  0  0  0  0  0
   57.1945   14.8906   34.5903 C   0  0  0  0  0  0  0  0  0  0  0  0
   58.0602   14.2213   33.7237 C   0  0  0  0  0  0  0  0  0  0  0  0
   59.1719   13.6258   34.1500 N   0  0  0  0  0  0  0  0  0  0  0  0
   59.4067   13.7098   35.4643 C   0  0  0  0  0  0  0  0  0  0  0  0
   57.9380   15.5057   38.5095 C   0  0  0  0  0  0  0  0  0  0  0  0
   58.8501   14.4551   37.8553 C   0  0  0  0  0  0  0  0  0  0  0  0
   58.6249   13.0722   38.4885 C   0  0  0  0  0  0  0  0  0  0  0  0
   60.5500   13.1018   35.9343 O   0  0  0  0  0  0  0  0  0  0  0  0
   60.8062   11.6808   35.7853 C   0  0  0  0  0  0  0  0  0  0  0  0
  7  8  1  0
  8  9  1  0
  8  1  1  0
  1  2  2  0
  1  6  1  0
  2  3  1  0
  3  4  2  0
  4  5  1  0
  5  6  2  0
  6 10  1  0
 10 11  1  0
M  END
>  <minimizedAffinity>  (1) 
-4.14831

$$$$
