IPZ
     RDKit          3D

 11 11  0  0  0  0  0  0  0  0999 V2000
   50.3878   23.6059   41.0557 C   0  0  0  0  0  0  0  0  0  0  0  0
   49.0867   23.4807   41.3493 N   0  0  0  0  0  0  0  0  0  0  0  0
   48.2237   24.1261   40.5629 C   0  0  0  0  0  0  0  0  0  0  0  0
   48.6460   24.8997   39.4806 C   0  0  0  0  0  0  0  0  0  0  0  0
   49.9321   25.0409   39.1670 N   0  0  0  0  0  0  0  0  0  0  0  0
   50.7954   24.3926   39.9568 C   0  0  0  0  0  0  0  0  0  0  0  0
   50.8174   22.6747   43.3392 C   0  0  0  0  0  0  0  0  0  0  0  0
   51.4102   22.8797   41.9356 C   0  0  0  0  0  0  0  0  0  0  0  0
   51.7644   21.5280   41.2942 C   0  0  0  0  0  0  0  0  0  0  0  0
   52.1337   24.5199   39.6556 O   0  0  0  0  0  0  0  0  0  0  0  0
   52.7585   23.8395   38.5359 C   0  0  0  0  0  0  0  0  0  0  0  0
  7  8  1  0
  8  9  1  0
  8  1  1  0
  1  2  2  0
  1  6  1  0
  2  3  1  0
  3  4  2  0
  4  5  1  0
  5  6  2  0
  6 10  1  0
 10 11  1  0
M  END
>  <minimizedAffinity>  (1) 
-5.65131

$$$$
