IPZ
     RDKit          3D

 11 11  0  0  0  0  0  0  0  0999 V2000
   31.9072   18.2365   44.8315 C   0  0  0  0  0  0  0  0  0  0  0  0
   31.3256   18.9838   43.8839 N   0  0  0  0  0  0  0  0  0  0  0  0
   30.0691   19.3732   44.1064 C   0  0  0  0  0  0  0  0  0  0  0  0
   29.3819   19.0236   45.2699 C   0  0  0  0  0  0  0  0  0  0  0  0
   29.9362   18.2823   46.2268 N   0  0  0  0  0  0  0  0  0  0  0  0
   31.1961   17.8933   46.0015 C   0  0  0  0  0  0  0  0  0  0  0  0
   33.3459   16.4923   43.7572 C   0  0  0  0  0  0  0  0  0  0  0  0
   33.3499   17.7695   44.6129 C   0  0  0  0  0  0  0  0  0  0  0  0
   34.1459   18.8857   43.9169 C   0  0  0  0  0  0  0  0  0  0  0  0
   31.7958   17.1253   46.9754 O   0  0  0  0  0  0  0  0  0  0  0  0
   31.5463   15.7030   47.1234 C   0  0  0  0  0  0  0  0  0  0  0  0
  7  8  1  0
  8  9  1  0
  8  1  1  0
  1  2  2  0
  1  6  1  0
  2  3  1  0
  3  4  2  0
  4  5  1  0
  5  6  2  0
  6 10  1  0
 10 11  1  0
M  END
>  <minimizedAffinity>  (1) 
-3.75973

$$$$
