IPZ
     RDKit          3D

 11 11  0  0  0  0  0  0  0  0999 V2000
   50.0681   23.8767   40.7742 C   0  0  0  0  0  0  0  0  0  0  0  0
   49.7900   23.1177   41.8424 N   0  0  0  0  0  0  0  0  0  0  0  0
   50.6028   22.0870   42.0809 C   0  0  0  0  0  0  0  0  0  0  0  0
   51.6962   21.8029   41.2612 C   0  0  0  0  0  0  0  0  0  0  0  0
   51.9948   22.5406   40.1940 N   0  0  0  0  0  0  0  0  0  0  0  0
   51.1785   23.5736   39.9571 C   0  0  0  0  0  0  0  0  0  0  0  0
   47.9857   24.6015   39.5891 C   0  0  0  0  0  0  0  0  0  0  0  0
   49.1578   25.0700   40.4667 C   0  0  0  0  0  0  0  0  0  0  0  0
   48.6419   25.6692   41.7853 C   0  0  0  0  0  0  0  0  0  0  0  0
   51.4637   24.3555   38.8593 O   0  0  0  0  0  0  0  0  0  0  0  0
   52.4585   23.9900   37.8674 C   0  0  0  0  0  0  0  0  0  0  0  0
  7  8  1  0
  8  9  1  0
  8  1  1  0
  1  2  2  0
  1  6  1  0
  2  3  1  0
  3  4  2  0
  4  5  1  0
  5  6  2  0
  6 10  1  0
 10 11  1  0
M  END
>  <minimizedAffinity>  (1) 
-5.57423

$$$$
