IPZ
     RDKit          3D

 11 11  0  0  0  0  0  0  0  0999 V2000
   58.6826   13.5651   34.7441 C   0  0  0  0  0  0  0  0  0  0  0  0
   58.1179   13.5195   33.5302 N   0  0  0  0  0  0  0  0  0  0  0  0
   57.1305   14.3835   33.2889 C   0  0  0  0  0  0  0  0  0  0  0  0
   56.6970   15.2978   34.2503 C   0  0  0  0  0  0  0  0  0  0  0  0
   57.2405   15.3641   35.4638 N   0  0  0  0  0  0  0  0  0  0  0  0
   58.2306   14.4970   35.7032 C   0  0  0  0  0  0  0  0  0  0  0  0
   59.2391   11.1790   35.2570 C   0  0  0  0  0  0  0  0  0  0  0  0
   59.8201   12.5887   35.0598 C   0  0  0  0  0  0  0  0  0  0  0  0
   60.8352   12.5999   33.9050 C   0  0  0  0  0  0  0  0  0  0  0  0
   58.8127   14.5432   36.9510 O   0  0  0  0  0  0  0  0  0  0  0  0
   58.1841   15.1843   38.0915 C   0  0  0  0  0  0  0  0  0  0  0  0
  7  8  1  0
  8  9  1  0
  8  1  1  0
  1  2  2  0
  1  6  1  0
  2  3  1  0
  3  4  2  0
  4  5  1  0
  5  6  2  0
  6 10  1  0
 10 11  1  0
M  END
>  <minimizedAffinity>  (1) 
-3.95608

$$$$
