TYE
     RDKit          3D

 12 12  0  0  0  0  0  0  0  0999 V2000
   61.0637   20.3404   28.0295 C   0  0  0  0  0  0  0  0  0  0  0  0
   60.1625   21.2238   28.8709 C   0  0  0  0  0  0  0  0  0  0  0  0
   57.7763   23.7918   31.1441 O   0  0  0  0  0  0  0  0  0  0  0  0
   58.5597   22.9535   30.4136 C   0  0  0  0  0  0  0  0  0  0  0  0
   60.3962   21.3544   30.2549 C   0  0  0  0  0  0  0  0  0  0  0  0
   59.1209   21.9516   28.2608 C   0  0  0  0  0  0  0  0  0  0  0  0
   59.5961   22.2158   31.0277 C   0  0  0  0  0  0  0  0  0  0  0  0
   58.3242   22.8171   29.0300 C   0  0  0  0  0  0  0  0  0  0  0  0
   62.7025   21.9257   27.1019 N   0  0  0  0  0  0  0  0  0  0  0  0
   62.5252   20.8115   28.0572 C   0  0  2  0  0  0  0  0  0  0  0  0
   63.4740   19.6519   27.6880 C   0  0  0  0  0  0  0  0  0  0  0  0
   64.2371   19.2954   28.8387 O   0  0  0  0  0  0  0  0  0  0  0  0
 11 12  1  0
 11 10  1  0
 10  9  1  6
 10  1  1  0
  1  2  1  0
  2  5  2  0
  2  6  1  0
  3  4  1  0
  4  7  2  0
  4  8  1  0
  5  7  1  0
  6  8  2  0
M  CHG  1   9   1
M  END
>  <minimizedAffinity>  (1) 
-4.76346

$$$$
