TYE
     RDKit          3D

 12 12  0  0  0  0  0  0  0  0999 V2000
   62.2158   17.9805   27.3742 C   0  0  0  0  0  0  0  0  0  0  0  0
   60.9601   18.8219   27.2480 C   0  0  0  0  0  0  0  0  0  0  0  0
   57.5963   21.2646   26.8322 O   0  0  0  0  0  0  0  0  0  0  0  0
   58.6929   20.4734   26.9786 C   0  0  0  0  0  0  0  0  0  0  0  0
   60.5105   19.5862   28.3438 C   0  0  0  0  0  0  0  0  0  0  0  0
   60.2697   18.8769   26.0203 C   0  0  0  0  0  0  0  0  0  0  0  0
   59.3777   20.4100   28.2125 C   0  0  0  0  0  0  0  0  0  0  0  0
   59.1411   19.7037   25.8853 C   0  0  0  0  0  0  0  0  0  0  0  0
   64.2982   17.4338   26.1808 N   0  0  0  0  0  0  0  0  0  0  0  0
   63.3696   18.5318   26.5236 C   0  0  2  0  0  0  0  0  0  0  0  0
   64.1275   19.6355   27.2909 C   0  0  0  0  0  0  0  0  0  0  0  0
   64.2652   19.2391   28.6538 O   0  0  0  0  0  0  0  0  0  0  0  0
 11 12  1  0
 11 10  1  0
 10  9  1  1
 10  1  1  0
  1  2  1  0
  2  5  2  0
  2  6  1  0
  3  4  1  0
  4  7  2  0
  4  8  1  0
  5  7  1  0
  6  8  2  0
M  CHG  1   9   1
M  END
>  <minimizedAffinity>  (1) 
-4.85753

$$$$
