TYE
     RDKit          3D

 12 12  0  0  0  0  0  0  0  0999 V2000
   60.5169   22.4761   28.3466 C   0  0  0  0  0  0  0  0  0  0  0  0
   60.3955   21.2390   27.4773 C   0  0  0  0  0  0  0  0  0  0  0  0
   60.0179   17.7422   25.2224 O   0  0  0  0  0  0  0  0  0  0  0  0
   60.1524   18.8783   25.9579 C   0  0  0  0  0  0  0  0  0  0  0  0
   61.5391   20.4692   27.1831 C   0  0  0  0  0  0  0  0  0  0  0  0
   59.1318   20.8326   27.0034 C   0  0  0  0  0  0  0  0  0  0  0  0
   61.4207   19.2912   26.4230 C   0  0  0  0  0  0  0  0  0  0  0  0
   59.0105   19.6530   26.2487 C   0  0  0  0  0  0  0  0  0  0  0  0
   61.9790   23.4248   30.0849 N   0  0  0  0  0  0  0  0  0  0  0  0
   61.9679   22.7434   28.7730 C   0  0  2  0  0  0  0  0  0  0  0  0
   62.6870   23.6183   27.7248 C   0  0  0  0  0  0  0  0  0  0  0  0
   61.8446   24.7175   27.3845 O   0  0  0  0  0  0  0  0  0  0  0  0
 11 12  1  0
 11 10  1  0
 10  9  1  1
 10  1  1  0
  1  2  1  0
  2  5  2  0
  2  6  1  0
  3  4  1  0
  4  7  2  0
  4  8  1  0
  5  7  1  0
  6  8  2  0
M  CHG  1   9   1
M  END
>  <minimizedAffinity>  (1) 
-5.44137

$$$$
