TYE
     RDKit          3D

 12 12  0  0  0  0  0  0  0  0999 V2000
   61.3557   21.9687   27.3945 C   0  0  0  0  0  0  0  0  0  0  0  0
   61.7972   20.5869   26.9516 C   0  0  0  0  0  0  0  0  0  0  0  0
   63.0624   16.8481   25.5820 O   0  0  0  0  0  0  0  0  0  0  0  0
   62.6396   18.0629   26.0239 C   0  0  0  0  0  0  0  0  0  0  0  0
   60.8623   19.6948   26.3884 C   0  0  0  0  0  0  0  0  0  0  0  0
   63.1518   20.2123   27.0590 C   0  0  0  0  0  0  0  0  0  0  0  0
   61.2799   18.4333   25.9264 C   0  0  0  0  0  0  0  0  0  0  0  0
   63.5722   18.9547   26.5927 C   0  0  0  0  0  0  0  0  0  0  0  0
   60.9535   21.7462   29.8128 N   0  0  0  0  0  0  0  0  0  0  0  0
   61.8671   22.3167   28.8002 C   0  0  2  0  0  0  0  0  0  0  0  0
   61.9550   23.8468   28.9801 C   0  0  0  0  0  0  0  0  0  0  0  0
   61.7129   24.4742   27.7226 O   0  0  0  0  0  0  0  0  0  0  0  0
 11 12  1  0
 11 10  1  0
 10  9  1  1
 10  1  1  0
  1  2  1  0
  2  5  2  0
  2  6  1  0
  3  4  1  0
  4  7  2  0
  4  8  1  0
  5  7  1  0
  6  8  2  0
M  CHG  1   9   1
M  END
>  <minimizedAffinity>  (1) 
-4.94363

$$$$
