TYE
     RDKit          3D

 12 12  0  0  0  0  0  0  0  0999 V2000
   62.7409   20.8042   27.1434 C   0  0  0  0  0  0  0  0  0  0  0  0
   61.2262   20.8822   27.1296 C   0  0  0  0  0  0  0  0  0  0  0  0
   57.0506   20.9869   27.2227 O   0  0  0  0  0  0  0  0  0  0  0  0
   58.4095   20.9441   27.1843 C   0  0  0  0  0  0  0  0  0  0  0  0
   60.4859   20.0606   26.2555 C   0  0  0  0  0  0  0  0  0  0  0  0
   60.5570   21.7415   28.0244 C   0  0  0  0  0  0  0  0  0  0  0  0
   59.0796   20.0911   26.2794 C   0  0  0  0  0  0  0  0  0  0  0  0
   59.1520   21.7692   28.0539 C   0  0  0  0  0  0  0  0  0  0  0  0
   63.4677   19.5283   29.1191 N   0  0  0  0  0  0  0  0  0  0  0  0
   63.2458   19.4488   27.6597 C   0  0  2  0  0  0  0  0  0  0  0  0
   64.5603   19.0567   26.9528 C   0  0  0  0  0  0  0  0  0  0  0  0
   64.3218   18.9696   25.5496 O   0  0  0  0  0  0  0  0  0  0  0  0
 11 12  1  0
 11 10  1  0
 10  9  1  1
 10  1  1  0
  1  2  1  0
  2  5  2  0
  2  6  1  0
  3  4  1  0
  4  7  2  0
  4  8  1  0
  5  7  1  0
  6  8  2  0
M  CHG  1   9   1
M  END
>  <minimizedAffinity>  (1) 
-5.56377

$$$$
