TYE
     RDKit          3D

 12 12  0  0  0  0  0  0  0  0999 V2000
   60.3127   16.4510   27.1775 C   0  0  0  0  0  0  0  0  0  0  0  0
   59.5419   17.7501   27.0405 C   0  0  0  0  0  0  0  0  0  0  0  0
   57.5494   21.4098   26.7380 O   0  0  0  0  0  0  0  0  0  0  0  0
   58.1926   20.2164   26.8468 C   0  0  0  0  0  0  0  0  0  0  0  0
   58.5921   18.1125   28.0169 C   0  0  0  0  0  0  0  0  0  0  0  0
   59.8097   18.6175   25.9622 C   0  0  0  0  0  0  0  0  0  0  0  0
   57.9156   19.3424   27.9215 C   0  0  0  0  0  0  0  0  0  0  0  0
   59.1392   19.8493   25.8681 C   0  0  0  0  0  0  0  0  0  0  0  0
   58.5447   14.7969   26.7329 N   0  0  0  0  0  0  0  0  0  0  0  0
   59.8031   15.3712   26.2115 C   0  0  2  0  0  0  0  0  0  0  0  0
   60.8558   14.2553   26.0441 C   0  0  0  0  0  0  0  0  0  0  0  0
   60.2042   13.0696   25.5935 O   0  0  0  0  0  0  0  0  0  0  0  0
 11 12  1  0
 11 10  1  0
 10  9  1  1
 10  1  1  0
  1  2  1  0
  2  5  2  0
  2  6  1  0
  3  4  1  0
  4  7  2  0
  4  8  1  0
  5  7  1  0
  6  8  2  0
M  CHG  1   9   1
M  END
>  <minimizedAffinity>  (1) 
-4.95703

$$$$
