TYE
     RDKit          3D

 12 12  0  0  0  0  0  0  0  0999 V2000
   65.4436   14.1410   25.0682 C   0  0  0  0  0  0  0  0  0  0  0  0
   66.6653   14.2168   24.1724 C   0  0  0  0  0  0  0  0  0  0  0  0
   70.1286   14.4002   21.8428 O   0  0  0  0  0  0  0  0  0  0  0  0
   69.0014   14.3523   22.6024 C   0  0  0  0  0  0  0  0  0  0  0  0
   67.2240   15.4693   23.8468 C   0  0  0  0  0  0  0  0  0  0  0  0
   67.2701   13.0326   23.7047 C   0  0  0  0  0  0  0  0  0  0  0  0
   68.3892   15.5397   23.0614 C   0  0  0  0  0  0  0  0  0  0  0  0
   68.4375   13.1006   22.9247 C   0  0  0  0  0  0  0  0  0  0  0  0
   66.8412   14.1193   27.0945 N   0  0  0  0  0  0  0  0  0  0  0  0
   65.6924   14.7821   26.4414 C   0  0  2  0  0  0  0  0  0  0  0  0
   64.4397   14.6529   27.3333 C   0  0  0  0  0  0  0  0  0  0  0  0
   63.8357   13.3824   27.0998 O   0  0  0  0  0  0  0  0  0  0  0  0
 11 12  1  0
 11 10  1  0
 10  9  1  1
 10  1  1  0
  1  2  1  0
  2  5  2  0
  2  6  1  0
  3  4  1  0
  4  7  2  0
  4  8  1  0
  5  7  1  0
  6  8  2  0
M  CHG  1   9   1
M  END
>  <minimizedAffinity>  (1) 
-6.74019

$$$$
