TYE
     RDKit          3D

 12 12  0  0  0  0  0  0  0  0999 V2000
   65.8830   15.8388   25.7430 C   0  0  0  0  0  0  0  0  0  0  0  0
   66.7372   15.0317   24.7840 C   0  0  0  0  0  0  0  0  0  0  0  0
   68.9684   12.8277   22.0237 O   0  0  0  0  0  0  0  0  0  0  0  0
   68.2372   13.5351   22.9264 C   0  0  0  0  0  0  0  0  0  0  0  0
   66.6768   13.6235   24.8004 C   0  0  0  0  0  0  0  0  0  0  0  0
   67.5553   15.6907   23.8442 C   0  0  0  0  0  0  0  0  0  0  0  0
   67.4263   12.8739   23.8754 C   0  0  0  0  0  0  0  0  0  0  0  0
   68.3005   14.9439   22.9154 C   0  0  0  0  0  0  0  0  0  0  0  0
   63.4667   16.2921   25.6191 N   0  0  0  0  0  0  0  0  0  0  0  0
   64.4743   15.2478   25.9009 C   0  0  2  0  0  0  0  0  0  0  0  0
   64.2742   14.7020   27.3304 C   0  0  0  0  0  0  0  0  0  0  0  0
   65.5520   14.4593   27.9151 O   0  0  0  0  0  0  0  0  0  0  0  0
 11 12  1  0
 11 10  1  0
 10  9  1  1
 10  1  1  0
  1  2  1  0
  2  5  2  0
  2  6  1  0
  3  4  1  0
  4  7  2  0
  4  8  1  0
  5  7  1  0
  6  8  2  0
M  CHG  1   9   1
M  END
>  <minimizedAffinity>  (1) 
-6.07859

$$$$
