TYE
     RDKit          3D

 12 12  0  0  0  0  0  0  0  0999 V2000
   58.9898   23.6407   29.3334 C   0  0  0  0  0  0  0  0  0  0  0  0
   60.2025   23.1685   28.5542 C   0  0  0  0  0  0  0  0  0  0  0  0
   63.6003   21.7921   26.5503 O   0  0  0  0  0  0  0  0  0  0  0  0
   62.4998   22.2504   27.2051 C   0  0  0  0  0  0  0  0  0  0  0  0
   61.3181   24.0170   28.4041 C   0  0  0  0  0  0  0  0  0  0  0  0
   60.2329   21.8641   28.0212 C   0  0  0  0  0  0  0  0  0  0  0  0
   62.4655   23.5617   27.7292 C   0  0  0  0  0  0  0  0  0  0  0  0
   61.3805   21.4052   27.3516 C   0  0  0  0  0  0  0  0  0  0  0  0
   57.2735   23.0213   30.9857 N   0  0  0  0  0  0  0  0  0  0  0  0
   58.6057   22.6634   30.4541 C   0  0  2  0  0  0  0  0  0  0  0  0
   59.6493   22.7064   31.5900 C   0  0  0  0  0  0  0  0  0  0  0  0
   58.9718   22.6326   32.8426 O   0  0  0  0  0  0  0  0  0  0  0  0
 11 12  1  0
 11 10  1  0
 10  9  1  1
 10  1  1  0
  1  2  1  0
  2  5  2  0
  2  6  1  0
  3  4  1  0
  4  7  2  0
  4  8  1  0
  5  7  1  0
  6  8  2  0
M  CHG  1   9   1
M  END
>  <minimizedAffinity>  (1) 
-6.00431

$$$$
