TYE
     RDKit          3D

 12 12  0  0  0  0  0  0  0  0999 V2000
   78.2288    4.3175   28.1093 C   0  0  0  0  0  0  0  0  0  0  0  0
   78.1242    3.4571   29.3540 C   0  0  0  0  0  0  0  0  0  0  0  0
   77.9552    0.9835   32.7168 O   0  0  0  0  0  0  0  0  0  0  0  0
   78.0014    1.7827   31.6171 C   0  0  0  0  0  0  0  0  0  0  0  0
   77.1284    2.4633   29.4424 C   0  0  0  0  0  0  0  0  0  0  0  0
   79.0525    3.6191   30.4022 C   0  0  0  0  0  0  0  0  0  0  0  0
   77.0637    1.6273   30.5721 C   0  0  0  0  0  0  0  0  0  0  0  0
   78.9932    2.7812   31.5292 C   0  0  0  0  0  0  0  0  0  0  0  0
   76.7159    5.5148   26.5805 N   0  0  0  0  0  0  0  0  0  0  0  0
   77.0729    5.3231   28.0022 C   0  0  2  0  0  0  0  0  0  0  0  0
   77.4740    6.6763   28.6263 C   0  0  0  0  0  0  0  0  0  0  0  0
   76.3391    7.2362   29.2834 O   0  0  0  0  0  0  0  0  0  0  0  0
 11 12  1  0
 11 10  1  0
 10  9  1  6
 10  1  1  0
  1  2  1  0
  2  5  2  0
  2  6  1  0
  3  4  1  0
  4  7  2  0
  4  8  1  0
  5  7  1  0
  6  8  2  0
M  CHG  1   9   1
M  END
>  <minimizedAffinity>  (1) 
-5.77444

$$$$
