TYE
     RDKit          3D

 12 12  0  0  0  0  0  0  0  0999 V2000
   77.5551    3.6559   30.1380 C   0  0  0  0  0  0  0  0  0  0  0  0
   77.8165    4.1758   28.7373 C   0  0  0  0  0  0  0  0  0  0  0  0
   78.3692    5.6399   24.8636 O   0  0  0  0  0  0  0  0  0  0  0  0
   78.1882    5.1523   26.1203 C   0  0  0  0  0  0  0  0  0  0  0  0
   77.8737    3.2786   27.6516 C   0  0  0  0  0  0  0  0  0  0  0  0
   77.9546    5.5607   28.5145 C   0  0  0  0  0  0  0  0  0  0  0  0
   78.0612    3.7634   26.3443 C   0  0  0  0  0  0  0  0  0  0  0  0
   78.1362    6.0476   27.2085 C   0  0  0  0  0  0  0  0  0  0  0  0
   77.0592    1.3558   30.8613 N   0  0  0  0  0  0  0  0  0  0  0  0
   78.1227    2.2442   30.3466 C   0  0  2  0  0  0  0  0  0  0  0  0
   79.3018    2.2772   31.3417 C   0  0  0  0  0  0  0  0  0  0  0  0
   79.4476    3.6050   31.8409 O   0  0  0  0  0  0  0  0  0  0  0  0
 11 12  1  0
 11 10  1  0
 10  9  1  1
 10  1  1  0
  1  2  1  0
  2  5  2  0
  2  6  1  0
  3  4  1  0
  4  7  2  0
  4  8  1  0
  5  7  1  0
  6  8  2  0
M  CHG  1   9   1
M  END
>  <minimizedAffinity>  (1) 
-5.46431

$$$$
