TYE
     RDKit          3D

 12 12  0  0  0  0  0  0  0  0999 V2000
   64.3729   15.0273   27.2435 C   0  0  0  0  0  0  0  0  0  0  0  0
   63.2516   14.0256   27.4430 C   0  0  0  0  0  0  0  0  0  0  0  0
   60.0782   11.3844   28.0826 O   0  0  0  0  0  0  0  0  0  0  0  0
   61.1167   12.2400   27.8840 C   0  0  0  0  0  0  0  0  0  0  0  0
   63.3203   13.0911   28.4962 C   0  0  0  0  0  0  0  0  0  0  0  0
   62.1189   14.0602   26.6049 C   0  0  0  0  0  0  0  0  0  0  0  0
   62.2567   12.1972   28.7172 C   0  0  0  0  0  0  0  0  0  0  0  0
   61.0526   13.1719   26.8276 C   0  0  0  0  0  0  0  0  0  0  0  0
   66.6670   14.1362   27.1923 N   0  0  0  0  0  0  0  0  0  0  0  0
   65.4952   14.4703   26.3553 C   0  0  2  0  0  0  0  0  0  0  0  0
   65.8983   15.5034   25.2821 C   0  0  0  0  0  0  0  0  0  0  0  0
   67.0647   16.1956   25.7226 O   0  0  0  0  0  0  0  0  0  0  0  0
 11 12  1  0
 11 10  1  0
 10  9  1  1
 10  1  1  0
  1  2  1  0
  2  5  2  0
  2  6  1  0
  3  4  1  0
  4  7  2  0
  4  8  1  0
  5  7  1  0
  6  8  2  0
M  CHG  1   9   1
M  END
>  <minimizedAffinity>  (1) 
-5.16023

$$$$
