TYE
     RDKit          3D

 12 12  0  0  0  0  0  0  0  0999 V2000
   60.2311   22.6501   28.3711 C   0  0  0  0  0  0  0  0  0  0  0  0
   60.1619   21.3669   27.5653 C   0  0  0  0  0  0  0  0  0  0  0  0
   59.9993   17.9240   25.2041 O   0  0  0  0  0  0  0  0  0  0  0  0
   60.0404   19.0459   25.9719 C   0  0  0  0  0  0  0  0  0  0  0  0
   58.9134   20.8641   27.1461 C   0  0  0  0  0  0  0  0  0  0  0  0
   61.3488   20.7030   27.1950 C   0  0  0  0  0  0  0  0  0  0  0  0
   58.8500   19.7044   26.3522 C   0  0  0  0  0  0  0  0  0  0  0  0
   61.2879   19.5474   26.3970 C   0  0  0  0  0  0  0  0  0  0  0  0
   58.2780   23.6038   29.5266 N   0  0  0  0  0  0  0  0  0  0  0  0
   59.3510   22.5920   29.6283 C   0  0  2  0  0  0  0  0  0  0  0  0
   60.1964   22.8535   30.8926 C   0  0  0  0  0  0  0  0  0  0  0  0
   60.2113   24.2549   31.1563 O   0  0  0  0  0  0  0  0  0  0  0  0
 11 12  1  0
 11 10  1  0
 10  9  1  6
 10  1  1  0
  1  2  1  0
  2  5  2  0
  2  6  1  0
  3  4  1  0
  4  7  2  0
  4  8  1  0
  5  7  1  0
  6  8  2  0
M  CHG  1   9   1
M  END
>  <minimizedAffinity>  (1) 
-5.27176

$$$$
