TYE
     RDKit          3D

 12 12  0  0  0  0  0  0  0  0999 V2000
   62.7589   21.2416   27.1855 C   0  0  0  0  0  0  0  0  0  0  0  0
   61.4201   21.7305   27.7044 C   0  0  0  0  0  0  0  0  0  0  0  0
   57.7019   23.1461   28.9798 O   0  0  0  0  0  0  0  0  0  0  0  0
   58.9174   22.6952   28.5686 C   0  0  0  0  0  0  0  0  0  0  0  0
   61.3391   22.9496   28.4075 C   0  0  0  0  0  0  0  0  0  0  0  0
   60.2500   20.9897   27.4419 C   0  0  0  0  0  0  0  0  0  0  0  0
   60.0910   23.4324   28.8419 C   0  0  0  0  0  0  0  0  0  0  0  0
   59.0015   21.4732   27.8699 C   0  0  0  0  0  0  0  0  0  0  0  0
   63.2359   19.7453   29.0811 N   0  0  0  0  0  0  0  0  0  0  0  0
   63.0532   19.7968   27.6150 C   0  0  2  0  0  0  0  0  0  0  0  0
   64.3230   19.2720   26.9124 C   0  0  0  0  0  0  0  0  0  0  0  0
   63.9869   18.8808   25.5829 O   0  0  0  0  0  0  0  0  0  0  0  0
 11 12  1  0
 11 10  1  0
 10  9  1  1
 10  1  1  0
  1  2  1  0
  2  5  2  0
  2  6  1  0
  3  4  1  0
  4  7  2  0
  4  8  1  0
  5  7  1  0
  6  8  2  0
M  CHG  1   9   1
M  END
>  <minimizedAffinity>  (1) 
-5.40049

$$$$
