TYE
     RDKit          3D

 12 12  0  0  0  0  0  0  0  0999 V2000
   61.7328   20.1315   26.5261 C   0  0  0  0  0  0  0  0  0  0  0  0
   61.6309   21.4408   27.2850 C   0  0  0  0  0  0  0  0  0  0  0  0
   61.4511   24.9806   29.4969 O   0  0  0  0  0  0  0  0  0  0  0  0
   61.4998   23.8245   28.7822 C   0  0  0  0  0  0  0  0  0  0  0  0
   60.5379   21.6746   28.1439 C   0  0  0  0  0  0  0  0  0  0  0  0
   62.6535   22.4038   27.1684 C   0  0  0  0  0  0  0  0  0  0  0  0
   60.4690   22.8647   28.8909 C   0  0  0  0  0  0  0  0  0  0  0  0
   62.5895   23.5910   27.9182 C   0  0  0  0  0  0  0  0  0  0  0  0
   63.2388   18.3229   25.8045 N   0  0  0  0  0  0  0  0  0  0  0  0
   63.0649   19.4133   26.7875 C   0  0  2  0  0  0  0  0  0  0  0  0
   63.0960   18.8357   28.2182 C   0  0  0  0  0  0  0  0  0  0  0  0
   64.2420   19.3449   28.8969 O   0  0  0  0  0  0  0  0  0  0  0  0
 11 12  1  0
 11 10  1  0
 10  9  1  6
 10  1  1  0
  1  2  1  0
  2  5  2  0
  2  6  1  0
  3  4  1  0
  4  7  2  0
  4  8  1  0
  5  7  1  0
  6  8  2  0
M  CHG  1   9   1
M  END
>  <minimizedAffinity>  (1) 
-5.95003

$$$$
