TYE
     RDKit          3D

 12 12  0  0  0  0  0  0  0  0999 V2000
   81.4728   16.2720   35.4771 C   0  0  0  0  0  0  0  0  0  0  0  0
   80.4406   15.1621   35.5364 C   0  0  0  0  0  0  0  0  0  0  0  0
   77.5033   12.2031   35.8038 O   0  0  0  0  0  0  0  0  0  0  0  0
   78.4653   13.1614   35.7258 C   0  0  0  0  0  0  0  0  0  0  0  0
   80.5913   14.1080   36.4600 C   0  0  0  0  0  0  0  0  0  0  0  0
   79.3062   15.2100   34.7012 C   0  0  0  0  0  0  0  0  0  0  0  0
   79.6075   13.1067   36.5552 C   0  0  0  0  0  0  0  0  0  0  0  0
   78.3193   14.2139   34.7987 C   0  0  0  0  0  0  0  0  0  0  0  0
   81.8579   18.1111   33.8868 N   0  0  0  0  0  0  0  0  0  0  0  0
   80.9010   17.5620   34.8708 C   0  0  2  0  0  0  0  0  0  0  0  0
   80.6324   18.6057   35.9754 C   0  0  0  0  0  0  0  0  0  0  0  0
   79.3154   18.4091   36.4858 O   0  0  0  0  0  0  0  0  0  0  0  0
 11 12  1  0
 11 10  1  0
 10  9  1  6
 10  1  1  0
  1  2  1  0
  2  5  2  0
  2  6  1  0
  3  4  1  0
  4  7  2  0
  4  8  1  0
  5  7  1  0
  6  8  2  0
M  CHG  1   9   1
M  END
>  <minimizedAffinity>  (1) 
-4.87265

$$$$
