TYE
     RDKit          3D

 12 12  0  0  0  0  0  0  0  0999 V2000
   62.0092   22.2670   28.3955 C   0  0  0  0  0  0  0  0  0  0  0  0
   60.7153   22.7809   28.9974 C   0  0  0  0  0  0  0  0  0  0  0  0
   57.1354   24.3026   30.5219 O   0  0  0  0  0  0  0  0  0  0  0  0
   58.3068   23.8152   30.0319 C   0  0  0  0  0  0  0  0  0  0  0  0
   60.7462   23.8032   29.9675 C   0  0  0  0  0  0  0  0  0  0  0  0
   59.4795   22.2698   28.5520 C   0  0  0  0  0  0  0  0  0  0  0  0
   59.5452   24.3199   30.4870 C   0  0  0  0  0  0  0  0  0  0  0  0
   58.2784   22.7887   29.0655 C   0  0  0  0  0  0  0  0  0  0  0  0
   62.6736   20.3871   29.8392 N   0  0  0  0  0  0  0  0  0  0  0  0
   62.1339   20.7405   28.5090 C   0  0  2  0  0  0  0  0  0  0  0  0
   63.0628   20.1905   27.4063 C   0  0  0  0  0  0  0  0  0  0  0  0
   63.6671   21.2863   26.7226 O   0  0  0  0  0  0  0  0  0  0  0  0
 11 12  1  0
 11 10  1  0
 10  9  1  1
 10  1  1  0
  1  2  1  0
  2  5  2  0
  2  6  1  0
  3  4  1  0
  4  7  2  0
  4  8  1  0
  5  7  1  0
  6  8  2  0
M  CHG  1   9   1
M  END
>  <minimizedAffinity>  (1) 
-5.45450

$$$$
