TYE
     RDKit          3D

 12 12  0  0  0  0  0  0  0  0999 V2000
   58.3829   32.4750   35.6040 C   0  0  0  0  0  0  0  0  0  0  0  0
   58.9155   31.2057   36.2410 C   0  0  0  0  0  0  0  0  0  0  0  0
   60.2506   27.6240   37.9276 O   0  0  0  0  0  0  0  0  0  0  0  0
   59.8100   28.7924   37.3885 C   0  0  0  0  0  0  0  0  0  0  0  0
   58.5886   30.8966   37.5769 C   0  0  0  0  0  0  0  0  0  0  0  0
   59.6976   30.3116   35.4824 C   0  0  0  0  0  0  0  0  0  0  0  0
   59.0357   29.6934   38.1528 C   0  0  0  0  0  0  0  0  0  0  0  0
   60.1404   29.1062   36.0540 C   0  0  0  0  0  0  0  0  0  0  0  0
   56.1881   33.5818   35.7365 N   0  0  0  0  0  0  0  0  0  0  0  0
   57.3867   33.2061   36.5160 C   0  0  2  0  0  0  0  0  0  0  0  0
   58.0338   34.4704   37.1195 C   0  0  0  0  0  0  0  0  0  0  0  0
   57.4251   34.7440   38.3798 O   0  0  0  0  0  0  0  0  0  0  0  0
 11 12  1  0
 11 10  1  0
 10  9  1  6
 10  1  1  0
  1  2  1  0
  2  5  2  0
  2  6  1  0
  3  4  1  0
  4  7  2  0
  4  8  1  0
  5  7  1  0
  6  8  2  0
M  CHG  1   9   1
M  END
>  <minimizedAffinity>  (1) 
-5.00260

$$$$
