TYE
     RDKit          3D

 12 12  0  0  0  0  0  0  0  0999 V2000
   60.0825   23.4914   28.8096 C   0  0  0  0  0  0  0  0  0  0  0  0
   60.7930   22.4067   28.0227 C   0  0  0  0  0  0  0  0  0  0  0  0
   62.7689   19.3306   26.0007 O   0  0  0  0  0  0  0  0  0  0  0  0
   62.1360   20.3377   26.6604 C   0  0  0  0  0  0  0  0  0  0  0  0
   62.1739   22.5152   27.7612 C   0  0  0  0  0  0  0  0  0  0  0  0
   60.0824   21.2673   27.5943 C   0  0  0  0  0  0  0  0  0  0  0  0
   62.8463   21.4845   27.0794 C   0  0  0  0  0  0  0  0  0  0  0  0
   60.7535   20.2338   26.9181 C   0  0  0  0  0  0  0  0  0  0  0  0
   57.6475   23.4977   29.1711 N   0  0  0  0  0  0  0  0  0  0  0  0
   58.9261   22.9322   29.6516 C   0  0  2  0  0  0  0  0  0  0  0  0
   59.1240   23.2819   31.1416 C   0  0  0  0  0  0  0  0  0  0  0  0
   60.2567   24.1389   31.2683 O   0  0  0  0  0  0  0  0  0  0  0  0
 11 12  1  0
 11 10  1  0
 10  9  1  6
 10  1  1  0
  1  2  1  0
  2  5  2  0
  2  6  1  0
  3  4  1  0
  4  7  2  0
  4  8  1  0
  5  7  1  0
  6  8  2  0
M  CHG  1   9   1
M  END
>  <minimizedAffinity>  (1) 
-5.45153

$$$$
