TYE
     RDKit          3D

 12 12  0  0  0  0  0  0  0  0999 V2000
   78.8075   14.3517   34.7579 C   0  0  0  0  0  0  0  0  0  0  0  0
   80.0997   15.0437   35.1476 C   0  0  0  0  0  0  0  0  0  0  0  0
   83.5779   17.0184   36.3550 O   0  0  0  0  0  0  0  0  0  0  0  0
   82.4429   16.3847   35.9548 C   0  0  0  0  0  0  0  0  0  0  0  0
   80.4426   16.2788   34.5612 C   0  0  0  0  0  0  0  0  0  0  0  0
   80.9342   14.4752   36.1310 C   0  0  0  0  0  0  0  0  0  0  0  0
   81.6129   16.9494   34.9610 C   0  0  0  0  0  0  0  0  0  0  0  0
   82.1009   15.1463   36.5361 C   0  0  0  0  0  0  0  0  0  0  0  0
   77.9771   12.3170   35.8671 N   0  0  0  0  0  0  0  0  0  0  0  0
   78.0621   13.7888   35.9770 C   0  0  2  0  0  0  0  0  0  0  0  0
   76.6428   14.3880   36.0669 C   0  0  0  0  0  0  0  0  0  0  0  0
   76.6873   15.7471   35.6377 O   0  0  0  0  0  0  0  0  0  0  0  0
 11 12  1  0
 11 10  1  0
 10  9  1  6
 10  1  1  0
  1  2  1  0
  2  5  2  0
  2  6  1  0
  3  4  1  0
  4  7  2  0
  4  8  1  0
  5  7  1  0
  6  8  2  0
M  CHG  1   9   1
M  END
>  <minimizedAffinity>  (1) 
-4.85914

$$$$
