TYE
     RDKit          3D

 12 12  0  0  0  0  0  0  0  0999 V2000
   72.3571   21.9259   10.9738 C   0  0  0  0  0  0  0  0  0  0  0  0
   71.5422   22.8655   10.1056 C   0  0  0  0  0  0  0  0  0  0  0  0
   69.4045   25.5800    7.7569 O   0  0  0  0  0  0  0  0  0  0  0  0
   70.0932   24.6986    8.5306 C   0  0  0  0  0  0  0  0  0  0  0  0
   70.3913   23.4889   10.6289 C   0  0  0  0  0  0  0  0  0  0  0  0
   71.9626   23.1522    8.7911 C   0  0  0  0  0  0  0  0  0  0  0  0
   69.6650   24.4030    9.8439 C   0  0  0  0  0  0  0  0  0  0  0  0
   71.2416   24.0695    8.0072 C   0  0  0  0  0  0  0  0  0  0  0  0
   74.7159   22.2743   11.5856 N   0  0  0  0  0  0  0  0  0  0  0  0
   73.3285   22.6826   11.8917 C   0  0  2  0  0  0  0  0  0  0  0  0
   73.0129   22.3878   13.3732 C   0  0  0  0  0  0  0  0  0  0  0  0
   71.9501   23.2388   13.7971 O   0  0  0  0  0  0  0  0  0  0  0  0
 11 12  1  0
 11 10  1  0
 10  9  1  6
 10  1  1  0
  1  2  1  0
  2  5  2  0
  2  6  1  0
  3  4  1  0
  4  7  2  0
  4  8  1  0
  5  7  1  0
  6  8  2  0
M  CHG  1   9   1
M  END
>  <minimizedAffinity>  (1) 
-5.32540

$$$$
