TYE
     RDKit          3D

 12 12  0  0  0  0  0  0  0  0999 V2000
   59.5548   30.5462   37.2856 C   0  0  0  0  0  0  0  0  0  0  0  0
   58.3226   31.4304   37.3091 C   0  0  0  0  0  0  0  0  0  0  0  0
   55.0125   33.9741   37.4763 O   0  0  0  0  0  0  0  0  0  0  0  0
   56.0857   33.1398   37.4310 C   0  0  0  0  0  0  0  0  0  0  0  0
   57.2842   31.1683   38.2257 C   0  0  0  0  0  0  0  0  0  0  0  0
   58.2372   32.5424   36.4472 C   0  0  0  0  0  0  0  0  0  0  0  0
   56.1654   32.0191   38.2872 C   0  0  0  0  0  0  0  0  0  0  0  0
   57.1230   33.3969   36.5110 C   0  0  0  0  0  0  0  0  0  0  0  0
   60.2383   28.8618   35.6258 N   0  0  0  0  0  0  0  0  0  0  0  0
   60.0718   30.3121   35.8585 C   0  0  2  0  0  0  0  0  0  0  0  0
   61.4201   31.0325   35.6471 C   0  0  0  0  0  0  0  0  0  0  0  0
   61.2435   32.0696   34.6844 O   0  0  0  0  0  0  0  0  0  0  0  0
 11 12  1  0
 11 10  1  0
 10  9  1  1
 10  1  1  0
  1  2  1  0
  2  5  2  0
  2  6  1  0
  3  4  1  0
  4  7  2  0
  4  8  1  0
  5  7  1  0
  6  8  2  0
M  CHG  1   9   1
M  END
>  <minimizedAffinity>  (1) 
-4.99987

$$$$
