TYE
     RDKit          3D

 12 12  0  0  0  0  0  0  0  0999 V2000
   77.8601    4.8819   29.4640 C   0  0  0  0  0  0  0  0  0  0  0  0
   77.7927    3.5121   30.1119 C   0  0  0  0  0  0  0  0  0  0  0  0
   77.4704   -0.2084   31.9851 O   0  0  0  0  0  0  0  0  0  0  0  0
   77.5829    1.0063   31.3837 C   0  0  0  0  0  0  0  0  0  0  0  0
   78.5785    3.2301   31.2477 C   0  0  0  0  0  0  0  0  0  0  0  0
   76.9089    2.5370   29.6071 C   0  0  0  0  0  0  0  0  0  0  0  0
   78.4771    1.9791   31.8833 C   0  0  0  0  0  0  0  0  0  0  0  0
   76.8018    1.2886   30.2440 C   0  0  0  0  0  0  0  0  0  0  0  0
   79.2706    5.5398   27.5569 N   0  0  0  0  0  0  0  0  0  0  0  0
   78.0542    4.7937   27.9431 C   0  0  2  0  0  0  0  0  0  0  0  0
   76.8293    5.3763   27.2071 C   0  0  0  0  0  0  0  0  0  0  0  0
   76.1788    6.3131   28.0631 O   0  0  0  0  0  0  0  0  0  0  0  0
 11 12  1  0
 11 10  1  0
 10  9  1  1
 10  1  1  0
  1  2  1  0
  2  5  2  0
  2  6  1  0
  3  4  1  0
  4  7  2  0
  4  8  1  0
  5  7  1  0
  6  8  2  0
M  CHG  1   9   1
M  END
>  <minimizedAffinity>  (1) 
-5.51057

$$$$
