TYE
     RDKit          3D

 12 12  0  0  0  0  0  0  0  0999 V2000
   76.5692   16.3354   37.2403 C   0  0  0  0  0  0  0  0  0  0  0  0
   77.4860   15.3572   36.5309 C   0  0  0  0  0  0  0  0  0  0  0  0
   80.0136   12.7682   34.4419 O   0  0  0  0  0  0  0  0  0  0  0  0
   79.1813   13.6051   35.1179 C   0  0  0  0  0  0  0  0  0  0  0  0
   76.9412   14.2647   35.8260 C   0  0  0  0  0  0  0  0  0  0  0  0
   78.8797   15.5674   36.5363 C   0  0  0  0  0  0  0  0  0  0  0  0
   77.7856   13.3874   35.1214 C   0  0  0  0  0  0  0  0  0  0  0  0
   79.7246   14.6954   35.8283 C   0  0  0  0  0  0  0  0  0  0  0  0
   77.0730   17.4523   39.3754 N   0  0  0  0  0  0  0  0  0  0  0  0
   77.3494   17.4684   37.9232 C   0  0  2  0  0  0  0  0  0  0  0  0
   76.9470   18.8353   37.3308 C   0  0  0  0  0  0  0  0  0  0  0  0
   75.7809   18.6653   36.5277 O   0  0  0  0  0  0  0  0  0  0  0  0
 11 12  1  0
 11 10  1  0
 10  9  1  1
 10  1  1  0
  1  2  1  0
  2  5  2  0
  2  6  1  0
  3  4  1  0
  4  7  2  0
  4  8  1  0
  5  7  1  0
  6  8  2  0
M  CHG  1   9   1
M  END
>  <minimizedAffinity>  (1) 
-4.89598

$$$$
