TYE
     RDKit          3D

 12 12  0  0  0  0  0  0  0  0999 V2000
   58.3147   33.2684   36.9240 C   0  0  0  0  0  0  0  0  0  0  0  0
   58.9616   31.9116   36.7206 C   0  0  0  0  0  0  0  0  0  0  0  0
   60.8828   28.2538   36.1008 O   0  0  0  0  0  0  0  0  0  0  0  0
   60.2525   29.4438   36.2918 C   0  0  0  0  0  0  0  0  0  0  0  0
   58.7162   31.1837   35.5387 C   0  0  0  0  0  0  0  0  0  0  0  0
   59.8457   31.4002   37.6920 C   0  0  0  0  0  0  0  0  0  0  0  0
   59.3579   29.9504   35.3231 C   0  0  0  0  0  0  0  0  0  0  0  0
   60.4923   30.1710   37.4759 C   0  0  0  0  0  0  0  0  0  0  0  0
   56.2909   34.4808   37.6269 N   0  0  0  0  0  0  0  0  0  0  0  0
   56.8173   33.1532   37.2450 C   0  0  2  0  0  0  0  0  0  0  0  0
   56.5865   32.1502   38.3949 C   0  0  0  0  0  0  0  0  0  0  0  0
   55.4485   31.3480   38.0865 O   0  0  0  0  0  0  0  0  0  0  0  0
 11 12  1  0
 11 10  1  0
 10  9  1  1
 10  1  1  0
  1  2  1  0
  2  5  2  0
  2  6  1  0
  3  4  1  0
  4  7  2  0
  4  8  1  0
  5  7  1  0
  6  8  2  0
M  CHG  1   9   1
M  END
>  <minimizedAffinity>  (1) 
-5.22124

$$$$
