TYE
     RDKit          3D

 12 12  0  0  0  0  0  0  0  0999 V2000
   59.4539   15.6487   26.7687 C   0  0  0  0  0  0  0  0  0  0  0  0
   60.0305   17.0459   26.6425 C   0  0  0  0  0  0  0  0  0  0  0  0
   61.5626   20.8993   26.1333 O   0  0  0  0  0  0  0  0  0  0  0  0
   61.0743   19.6404   26.2959 C   0  0  0  0  0  0  0  0  0  0  0  0
   61.3886   17.2204   26.3073 C   0  0  0  0  0  0  0  0  0  0  0  0
   59.1972   18.1698   26.8133 C   0  0  0  0  0  0  0  0  0  0  0  0
   61.9127   18.5147   26.1357 C   0  0  0  0  0  0  0  0  0  0  0  0
   59.7174   19.4636   26.6366 C   0  0  0  0  0  0  0  0  0  0  0  0
   58.9429   14.0968   24.9275 N   0  0  0  0  0  0  0  0  0  0  0  0
   60.0392   14.6849   25.7260 C   0  0  2  0  0  0  0  0  0  0  0  0
   60.8409   13.5622   26.4177 C   0  0  0  0  0  0  0  0  0  0  0  0
   62.2329   13.7984   26.2177 O   0  0  0  0  0  0  0  0  0  0  0  0
 11 12  1  0
 11 10  1  0
 10  9  1  1
 10  1  1  0
  1  2  1  0
  2  5  2  0
  2  6  1  0
  3  4  1  0
  4  7  2  0
  4  8  1  0
  5  7  1  0
  6  8  2  0
M  CHG  1   9   1
M  END
>  <minimizedAffinity>  (1) 
-5.08743

$$$$
