TYE
     RDKit          3D

 12 12  0  0  0  0  0  0  0  0999 V2000
   60.6309   18.6422   25.9607 C   0  0  0  0  0  0  0  0  0  0  0  0
   59.8884   19.7383   26.7011 C   0  0  0  0  0  0  0  0  0  0  0  0
   57.8386   22.8473   28.5951 O   0  0  0  0  0  0  0  0  0  0  0  0
   58.5163   21.8400   27.9818 C   0  0  0  0  0  0  0  0  0  0  0  0
   60.6066   20.7095   27.4277 C   0  0  0  0  0  0  0  0  0  0  0  0
   58.4831   19.8135   26.6232 C   0  0  0  0  0  0  0  0  0  0  0  0
   59.9238   21.7587   28.0697 C   0  0  0  0  0  0  0  0  0  0  0  0
   57.7994   20.8642   27.2591 C   0  0  0  0  0  0  0  0  0  0  0  0
   62.9425   18.0507   25.3557 N   0  0  0  0  0  0  0  0  0  0  0  0
   62.0688   18.4702   26.4720 C   0  0  2  0  0  0  0  0  0  0  0  0
   62.1196   17.4166   27.5984 C   0  0  0  0  0  0  0  0  0  0  0  0
   63.4166   17.4363   28.1909 O   0  0  0  0  0  0  0  0  0  0  0  0
 11 12  1  0
 11 10  1  0
 10  9  1  6
 10  1  1  0
  1  2  1  0
  2  5  2  0
  2  6  1  0
  3  4  1  0
  4  7  2  0
  4  8  1  0
  5  7  1  0
  6  8  2  0
M  CHG  1   9   1
M  END
>  <minimizedAffinity>  (1) 
-5.03882

$$$$
