TYE
     RDKit          3D

 12 12  0  0  0  0  0  0  0  0999 V2000
   62.1128   21.8316   28.6947 C   0  0  0  0  0  0  0  0  0  0  0  0
   62.1245   20.6964   27.6889 C   0  0  0  0  0  0  0  0  0  0  0  0
   62.0996   17.4648   25.0409 O   0  0  0  0  0  0  0  0  0  0  0  0
   62.1191   18.5146   25.9055 C   0  0  0  0  0  0  0  0  0  0  0  0
   63.3131   19.9765   27.4521 C   0  0  0  0  0  0  0  0  0  0  0  0
   60.9355   20.3304   27.0262 C   0  0  0  0  0  0  0  0  0  0  0  0
   63.3135   18.8881   26.5607 C   0  0  0  0  0  0  0  0  0  0  0  0
   60.9325   19.2396   26.1396 C   0  0  0  0  0  0  0  0  0  0  0  0
   63.0084   23.6495   27.2973 N   0  0  0  0  0  0  0  0  0  0  0  0
   61.8141   23.1860   28.0352 C   0  0  2  0  0  0  0  0  0  0  0  0
   61.4211   24.2311   29.1005 C   0  0  0  0  0  0  0  0  0  0  0  0
   62.0790   23.9122   30.3248 O   0  0  0  0  0  0  0  0  0  0  0  0
 11 12  1  0
 11 10  1  0
 10  9  1  1
 10  1  1  0
  1  2  1  0
  2  5  2  0
  2  6  1  0
  3  4  1  0
  4  7  2  0
  4  8  1  0
  5  7  1  0
  6  8  2  0
M  CHG  1   9   1
M  END
>  <minimizedAffinity>  (1) 
-4.92712

$$$$
