TYE
     RDKit          3D

 12 12  0  0  0  0  0  0  0  0999 V2000
   60.3759   23.1906   28.5294 C   0  0  0  0  0  0  0  0  0  0  0  0
   61.2947   21.9858   28.5991 C   0  0  0  0  0  0  0  0  0  0  0  0
   63.9515   18.7707   28.8428 O   0  0  0  0  0  0  0  0  0  0  0  0
   63.0894   19.8187   28.7520 C   0  0  0  0  0  0  0  0  0  0  0  0
   61.9632   21.5410   27.4405 C   0  0  0  0  0  0  0  0  0  0  0  0
   61.5172   21.3402   29.8322 C   0  0  0  0  0  0  0  0  0  0  0  0
   62.8582   20.4580   27.5137 C   0  0  0  0  0  0  0  0  0  0  0  0
   62.4153   20.2617   29.9087 C   0  0  0  0  0  0  0  0  0  0  0  0
   57.9298   22.9207   28.5856 N   0  0  0  0  0  0  0  0  0  0  0  0
   59.1404   23.0288   29.4271 C   0  0  2  0  0  0  0  0  0  0  0  0
   59.0053   24.2326   30.3831 C   0  0  0  0  0  0  0  0  0  0  0  0
   60.2361   24.4079   31.0816 O   0  0  0  0  0  0  0  0  0  0  0  0
 11 12  1  0
 11 10  1  0
 10  9  1  6
 10  1  1  0
  1  2  1  0
  2  5  2  0
  2  6  1  0
  3  4  1  0
  4  7  2  0
  4  8  1  0
  5  7  1  0
  6  8  2  0
M  CHG  1   9   1
M  END
>  <minimizedAffinity>  (1) 
-5.44325

$$$$
